 xtb: 6.7.1 (edcfbbe)
          06152615243D

  5  4  0     0  0            999 V2000
    0.1410    2.2525   -0.0934 S   0  0  0  0  0  0  0  0  0  0  0  0
   -1.5031    2.4339   -0.7841 C   0  0  0  0  0  0  0  0  0  0  0  0
   -1.4382    3.0601   -1.6694 H   0  0  0  0  0  0  0  0  0  0  0  0
   -1.8788    1.4482   -1.0437 H   0  0  0  0  0  0  0  0  0  0  0  0
   -2.1416    2.8982   -0.0378 H   0  0  0  0  0  0  0  0  0  0  0  0
  1  2  1  0  0  0  0
  2  3  1  0  0  0  0
  2  4  1  0  0  0  0
  2  5  1  0  0  0  0
M  END
