 xtb: 6.7.1 (edcfbbe)
          05062615383D

 10  9  0     0  0            999 V2000
   -1.7683   -0.1750   -0.1817 C   0  0  0  0  0  0  0  0  0  0  0  0
   -0.4671   -0.4189   -0.1661 C   0  0  0  0  0  0  0  0  0  0  0  0
    0.4693    0.4773    0.5599 C   0  0  0  0  0  0  0  0  0  0  0  0
    0.1239    1.4657    1.1718 O   0  0  0  0  0  0  0  0  0  0  0  0
    1.7716    0.0979    0.4852 N   0  0  0  0  0  0  0  0  0  0  0  0
   -2.1541    0.6862    0.3398 H   0  0  0  0  0  0  0  0  0  0  0  0
   -2.4745   -0.8030   -0.6973 H   0  0  0  0  0  0  0  0  0  0  0  0
   -0.0352   -1.2701   -0.6747 H   0  0  0  0  0  0  0  0  0  0  0  0
    2.0703   -0.7177   -0.0178 H   0  0  0  0  0  0  0  0  0  0  0  0
    2.4641    0.6578    0.9535 H   0  0  0  0  0  0  0  0  0  0  0  0
  1  2  2  0  0  0  0
  2  3  1  0  0  0  0
  3  4  2  0  0  0  0
  3  5  4  0  0  0  0
  1  6  1  0  0  0  0
  1  7  1  0  0  0  0
  2  8  1  0  0  0  0
  5  9  1  0  0  0  0
  5 10  1  0  0  0  0
M  END
